LAMMPS (2 Aug 2023)
# Initialization
units lj
dimension 3
atom_style atomic
pair_style lj/cut 2.5
boundary p p p

# System definition
region simulation_box block -10 10 -10 10 -10 10
create_box 1 simulation_box
Created orthogonal box = (-10 -10 -10) to (10 10 10)
create_atoms 1 random 2500 341341 simulation_box
Created 2500 atoms

# Simulation settings
mass 1 1
pair_coeff 1 1 1.0 1.0

# Minimize
minimize 1.0e-4 1.0e-6 1000 10000
Generated 0 of 0 mixed pair_coeff terms from geometric mixing rule
Step          Temp          E_pair         E_mol          TotEng         Press
0   0              2.6722447e+11  0              2.6722447e+11  3.3403061e+11
Loop time of 1.1511 on 1 procs for 653 steps with 2500 atoms

Minimization stats:
  Stopping criterion = energy tolerance
  Energy initial, next-to-last, final =
  Force two-norm initial, final = 1.3583625e+17 21.738541
  Force max component initial, final = 8.6168688e+16 6.925373
  Final line search alpha, max atom move = 0.042323927 0.29310898
  Iterations, force evaluations = 653 1273

# Dynamics
timestep 0.005
fix mynvt all nvt temp 1.0 1.0 $(100.0*dt)
fix mynvt all nvt temp 1.0 1.0 0.5

# For our purposes we need to output the temperature and energy of the system
variable T equal temp
variable E equal etotal
#fix convergence_T all ave/time 1 1 1 v_T file convergence_T.txt
#fix convergence_E all ave/time 1 1 1 v_E file convergence_E.txt
thermo 10
run 10000
Generated 0 of 0 mixed pair_coeff terms from geometric mixing rule
Step          Temp          E_pair         E_mol          TotEng         Press
653   0             -5.5577601      0             -5.5577601     -0.11719547
Averages over the last 501 of 1002 rows, steps 5660 to 10653:
Temp E_pair E_mol TotEng Press
0.999768 -2.73706 0 -1.238 0.0557587
Loop time of 6.23023 on 1 procs for 10000 steps with 2500 atoms
